/*--------------------------------*- C++ -*----------------------------------*\
| =========                 |                                                 |
| \\      /  F ield         | OpenFOAM: The Open Source CFD Toolbox           |
|  \\    /   O peration     | Version:  2.2.0                                 |
|   \\  /    A nd           | Web:      www.OpenFOAM.org                      |
|    \\/     M anipulation  |                                                 |
\*---------------------------------------------------------------------------*/
FoamFile
{
    version     2.0;
    format      ascii;
    class       dictionary;
    location    "system";
    object      fvSolution;
}
// * * * * * * * * * * * * * * * * * * * * * * * * * * * * * * * * * * * * * //

field p;

fileName "p.csv";

function composedFunction;
mode add;
composedFunctions
{
    plane
    {
        function functionPlane;
        centre (0 1. 0);
        normal (0 1 0);
        
    }

    sphere
    {
        function functionSphere;
        radius 0.4;
        centre (0.5 0.8 0.5);
        scale 1;
    }

    sphere2
    {
        function functionSphere;
        radius 0.4;
        centre (0.5 0.5 0.5);
    }


}











// ************************************************************************* //
