/*--------------------------------*- C++ -*----------------------------------*\
| =========                 |                                                 |
| \\      /  F ield         | OpenFOAM: The Open Source CFD Toolbox           |
|  \\    /   O peration     | Version:  plus                                  |
|   \\  /    A nd           | Web:      www.OpenFOAM.com                      |
|    \\/     M anipulation  |                                                 |
\*---------------------------------------------------------------------------*/
FoamFile
{
    version     2.0;
    format      ascii;
    class       dictionary;
    object      topoSetDict;
}

// * * * * * * * * * * * * * * * * * * * * * * * * * * * * * * * * * * * * * //

actions
(
    {
        name    c1;
        type    cellSet;
        action  new;
        source  boxToCell;
        sourceInfo
        {
            boxes
            (
                (.1 -1e10 0.08) (.9 1e10 0.2)
                (.75 -1e10 0.2) (.92 1e10 0.9)
                (.1 -1e10 0.2) (.25 1e10 0.7)
            );
        }
    }
);

// ************************************************************************* //
